<?xml version="1.0" encoding="UTF-8"?>

<!-- generated on 2024-06-17 19:36:32 by Eclipse SUMO GUI Version 1.19.0
-->

<configuration xmlns:xsi="http://www.w3.org/2001/XMLSchema-instance" xsi:noNamespaceSchemaLocation="http://sumo.dlr.de/xsd/sumoConfiguration.xsd">

    <input>
        <net-file value="Madenty_Network.net.xml"/>
        <route-files value="Madenty_Route.rou.xml"/>
    </input>

</configuration>
