<?xml version="1.0" encoding="UTF-8"?>

<!-- generated on 2024-06-17 19:36:15 by Eclipse SUMO netedit Version 1.19.0
-->

<routes xmlns:xsi="http://www.w3.org/2001/XMLSchema-instance" xsi:noNamespaceSchemaLocation="http://sumo.dlr.de/xsd/routes_file.xsd">
    <!-- Vehicles, persons and containers (sorted by depart) -->
    <trip id="t_0" depart="0.00" from="897977753#1" to="897977753#0" via="897977753#2 897977753#3 897977753#4 897977753#5 897977753#6 897977753#7 897977753#8 897977753#9 897977753#10 897977753#11 897977753#12 776323761#0 776323761#1 776323761#2 776323761#3 776323761#4 776323761#6 776323761#7 776323761#8 776323761#9 683344662#22 683344662#23 683344662#24 683344662#25 683344662#26 683344662#27 683344662#28 860334045 676270767#10 676270767#11 676270767#12 536498603#5 536498603#6 536498603#7 536498603#8 536498603#0 536498603#1 536498603#2 536498603#3 766405551#0 766405551#1 683344673 676264948#19 676264948#20 676264948#21 676264948#22 676264948#23 676264948#24 676264948#25 676264948#26 676264948#27 676264948#28 676264948#29 676264948#30 676264948#31 676264948#32 676264948#33 676264948#34 676264948#35 676264948#36 897968250 766405551#12 766405551#13 766405551#14 766405551#15 766405551#16 897968249 676270767#2 897977757#0 897977757#1 897977757#2 897977757#3 897977757#4 897977757#5 897977757#6 897977757#7 897977757#8 897977757#9 897977757#10 897977757#11 897977757#12 897977757#13 770615854#0 770615854#1 770615854#2 770615854#3 770615854#4 897977758#8 897977758#9 897977758#10 897977758#11 897977758#12 897977758#13 897977758#14 897977754 908057783#1 908057783#2 908057783#3 908057782"/>
    <trip id="t_1" depart="0.00" from="860334051#9" to="860334051#8" via="897977767#0 897977767#1 897977767#2 897977767#3 897977767#4 897977767#5 897977767#6 897977753#7 897977753#8 897977753#9 897977753#10 897977753#11 897977753#12 776323761#0 776323761#1 776323761#2 776323761#3 776323761#4 776323761#5 776323761#6 776323761#7 776323761#8 776323761#9 683344662#22 683344662#23 683344662#24 683344662#25 683344662#26 683344662#27 683344662#28 860334045 676270767#10 676270767#11 887037402 766405551#1 766405551#2 887037400 676270767#9 676270767#10 1065075853 683344662#34 683344662#35 683344662#36 860334051#0 860334051#1 860334051#2 860334051#3 860334051#4 860334051#5 860334051#6 860334051#7"/>
    <trip id="t_2" depart="0.00" from="897977757#1" to="897977757#0" via="897977757#2 897977757#3 897977757#4 897977757#5 897977757#6 897977757#7 897977757#8 897977757#9 897977757#10 897977757#11 897977757#12 897977757#13 770615854#0 770615854#1 770615854#2 770615854#3 770615854#4 897977758#8 897977758#9 -970654812 897977753#2 897977753#3 897977753#4 897977753#5 897977753#6 897977753#7 897977753#8 897977753#9 897977753#10 897977753#11 897977753#12 776323761#0 776323761#1 776323761#2 776323761#4 776323761#5 776323761#6 776323761#7 776323761#8 776323761#9 683344662#22 683344662#23 683344662#24 683344662#25 683344662#26 683344662#27 683344662#28 860334045 676270767#10 676270767#11 887037402 766405551#1 766405551#2 766405551#3 766405551#4 766405551#5 766405551#6 766405551#7 766405551#8 766405551#9 766405551#10 766405551#11 766405551#12 766405551#13 766405551#16 766405551#17 683344675#1 683344675#2 683344675#4 683344675#5 683344675#6 683344675#7 676270767#0 676270767#2"/>
</routes>
