<?xml version="1.0" encoding="UTF-8"?>

<!-- generated on 2024-06-17 19:36:17 by Eclipse SUMO netedit Version 1.19.0
<configuration xmlns:xsi="http://www.w3.org/2001/XMLSchema-instance" xsi:noNamespaceSchemaLocation="http://sumo.dlr.de/xsd/neteditConfiguration.xsd">

    <input>
        <sumocfg-file value="C:\C_MAIN\Master Stuff\2nd Semester\V2X\OpenStreetMap_Sumo\Madenty_Conf.sumocfg"/>
        <route-files value="C:\C_MAIN\Master Stuff\2nd Semester\V2X\OpenStreetMap_Sumo\Madenty_Route.rou.xml"/>
        <sumo-net-file value="C:\C_MAIN\Master Stuff\2nd Semester\V2X\OpenStreetMap_Sumo\Madenty_Network.net.xml"/>
    </input>

    <output>
        <output-file value="C:\C_MAIN\Master Stuff\2nd Semester\V2X\OpenStreetMap_Sumo\Madenty_Network.net.xml"/>
    </output>

    <processing>
        <geometry.min-radius.fix.railways value="false"/>
        <geometry.max-grade.fix value="false"/>
        <offset.disable-normalization value="true"/>
        <lefthand value="0"/>
    </processing>

    <junctions>
        <no-turnarounds value="true"/>
        <junctions.corner-detail value="5"/>
        <junctions.limit-turn-speed value="5.50"/>
        <rectangular-lane-cut value="0"/>
    </junctions>

    <pedestrian>
        <walkingareas value="0"/>
    </pedestrian>

</configuration>
-->

<net version="1.16" junctionCornerDetail="5" limitTurnSpeed="5.50" xmlns:xsi="http://www.w3.org/2001/XMLSchema-instance" xsi:noNamespaceSchemaLocation="http://sumo.dlr.de/xsd/net_file.xsd">

    <location netOffset="-369359.00,-3327619.27" convBoundary="0.00,0.00,2937.18,1936.46" origBoundary="31.644355,30.072919,31.674823,30.097522" projParameter="+proj=utm +zone=36 +ellps=WGS84 +datum=WGS84 +units=m +no_defs"/>

    <type id="highway.footway" priority="1" numLanes="1" speed="2.78" allow="pedestrian" oneway="1" width="2.00"/>
    <type id="highway.path" priority="1" numLanes="1" speed="5.56" allow="pedestrian bicycle" oneway="0" width="2.00"/>
    <type id="highway.residential" priority="3" numLanes="1" speed="13.89" disallow="tram rail_urban rail rail_electric rail_fast ship" oneway="0"/>
    <type id="highway.secondary" priority="11" numLanes="1" speed="27.78" disallow="tram rail_urban rail rail_electric rail_fast ship" oneway="0"/>
    <type id="highway.secondary_link" priority="6" numLanes="1" speed="22.22" disallow="tram rail_urban rail rail_electric rail_fast ship" oneway="0"/>
    <type id="highway.service" priority="1" numLanes="1" speed="5.56" allow="pedestrian delivery bicycle" oneway="0"/>
    <type id="highway.steps" priority="1" numLanes="1" speed="1.39" allow="pedestrian" oneway="1" width="2.00"/>
    <type id="highway.tertiary" priority="10" numLanes="1" speed="22.22" disallow="tram rail_urban rail rail_electric rail_fast ship" oneway="0"/>
    <type id="highway.tertiary_link" priority="5" numLanes="1" speed="22.22" disallow="tram rail_urban rail rail_electric rail_fast ship" oneway="0"/>

    <edge id=":10038719381_0" function="internal">
        <lane id=":10038719381_0_0" index="0" disallow="tram rail_urban rail rail_electric rail_fast ship" speed="13.89" length="10.47" shape="944.69,797.47 935.34,802.18"/>
    </edge>
    <edge id=":10038719381_1" function="internal">
        <lane id=":10038719381_1_0" index="0" disallow="tram rail_urban rail rail_electric rail_fast ship" speed="18.00" length="10.50" shape="942.30,794.55 940.54,797.09 939.34,799.00 937.88,800.59 935.34,802.18"/>
    </edge>
    <edge id=":10038719382_0" function="internal">
        <lane id=":10038719382_0_0" index="0" disallow="tram rail_urban rail rail_electric rail_fast ship" speed="18.50" length="10.63" shape="956.45,777.68 953.91,779.30 952.42,780.93 951.19,782.88 949.42,785.43"/>
    </edge>
    <edge id=":10038719382_1" function="internal">
        <lane id=":10038719382_1_0" index="0" disallow="tram rail_urban rail rail_electric rail_fast ship" speed="27.78" length="10.60" shape="956.45,777.68 947.01,782.52"/>
    </edge>
    <edge id=":10712215142_0" function="internal">
        <lane id=":10712215142_0_0" index="0" allow="pedestrian delivery bicycle" speed="5.43" length="5.52" shape="1855.80,449.90 1854.28,449.27 1852.95,449.18 1851.82,449.61 1850.89,450.56"/>
    </edge>
    <edge id=":10712215142_1" function="internal">
        <lane id=":10712215142_1_0" index="0" allow="pedestrian delivery bicycle" speed="3.65" length="4.67" shape="1855.80,449.90 1855.13,448.62 1855.16,447.73 1855.90,447.21 1857.33,447.09"/>
    </edge>
    <edge id=":10712215142_2" function="internal">
        <lane id=":10712215142_2_0" index="0" allow="pedestrian delivery bicycle" speed="4.91" length="5.16" shape="1856.37,442.81 1855.70,444.08 1855.63,445.22 1856.18,446.22 1857.33,447.09"/>
    </edge>
    <edge id=":10712215142_3" function="internal">
        <lane id=":10712215142_3_0" index="0" disallow="tram rail_urban rail rail_electric rail_fast ship" speed="13.89" length="9.49" shape="1856.37,442.81 1850.89,450.56"/>
    </edge>
    <edge id=":10712215156_0" function="internal">
        <lane id=":10712215156_0_0" index="0" allow="pedestrian delivery bicycle" speed="4.87" length="5.24" shape="1881.52,590.79 1881.18,592.23 1881.41,593.34 1882.23,594.15 1883.62,594.63"/>
    </edge>
    <edge id=":10712215156_1" function="internal">
        <lane id=":10712215156_1_0" index="0" allow="pedestrian delivery bicycle" speed="3.65" length="4.67" shape="1881.52,590.79 1880.33,591.61 1879.44,591.69 1878.84,591.03 1878.54,589.62"/>
    </edge>
    <edge id=":10712215156_2" function="internal">
        <lane id=":10712215156_2_0" index="0" allow="pedestrian delivery bicycle" speed="5.56" length="5.83" shape="1874.28,592.82 1875.59,592.82 1876.74,592.29 1877.72,591.22 1878.54,589.62"/>
    </edge>
    <edge id=":10712215156_3" function="internal">
        <lane id=":10712215156_3_0" index="0" allow="pedestrian delivery bicycle" speed="5.56" length="9.51" shape="1874.28,592.82 1883.62,594.63"/>
    </edge>
    <edge id=":10712215159_0" function="internal">
        <lane id=":10712215159_0_0" index="0" allow="pedestrian delivery bicycle" speed="5.56" length="10.63" shape="1939.32,607.47 1942.29,608.08 1944.50,608.02 1946.72,607.49 1949.73,606.72"/>
    </edge>
    <edge id=":10712215159_1" function="internal">
        <lane id=":10712215159_1_0" index="0" allow="pedestrian delivery bicycle" speed="5.56" length="10.57" shape="1939.32,607.47 1949.41,610.62"/>
    </edge>
    <edge id=":10712215163_0" function="internal">
        <lane id=":10712215163_0_0" index="0" allow="pedestrian delivery bicycle" speed="5.56" length="6.52" shape="1964.91,611.55 1965.24,613.41 1965.91,614.88 1966.93,615.95 1968.30,616.64"/>
    </edge>
    <edge id=":10712215163_1" function="internal">
        <lane id=":10712215163_1_0" index="0" allow="pedestrian delivery bicycle" speed="5.56" length="6.89" shape="1961.74,614.55 1968.30,616.64"/>
    </edge>
    <edge id=":10712215165_0" function="internal">
        <lane id=":10712215165_0_0" index="0" allow="pedestrian delivery bicycle" speed="5.56" length="3.60" shape="1966.59,603.57 1965.86,604.34 1965.42,604.94 1965.15,605.63 1964.96,606.67"/>
    </edge>
    <edge id=":10712215165_1" function="internal">
        <lane id=":10712215165_1_0" index="0" allow="pedestrian delivery bicycle" speed="3.65" length="4.67" shape="1966.59,603.57 1965.18,603.89 1964.33,603.62 1964.02,602.78 1964.27,601.36"/>
    </edge>
    <edge id=":10712215165_2" function="internal">
        <lane id=":10712215165_2_0" index="0" allow="pedestrian delivery bicycle" speed="5.56" length="3.80" shape="1961.20,603.51 1962.23,603.06 1962.90,602.67 1963.49,602.17 1964.27,601.36"/>
    </edge>
    <edge id=":10712215165_3" function="internal">
        <lane id=":10712215165_3_0" index="0" allow="pedestrian delivery bicycle" speed="4.95" length="6.75" shape="1961.20,603.51 1963.12,603.01 1964.38,603.36 1965.00,604.58 1964.96,606.67"/>
    </edge>
    <edge id=":10712215166_0" function="internal">
        <lane id=":10712215166_0_0" index="0" allow="pedestrian delivery bicycle" speed="3.65" length="4.67" shape="1974.36,590.79 1975.77,590.47 1976.62,590.73 1976.93,591.57 1976.68,592.99"/>
    </edge>
    <edge id=":10712215173_0" function="internal">
        <lane id=":10712215173_0_0" index="0" allow="pedestrian delivery bicycle" speed="9.39" length="7.55" shape="2131.51,699.33 2132.17,701.50 2132.65,703.07 2133.52,704.31 2135.30,705.48"/>
    </edge>
    <edge id=":10712215173_1" function="internal">
        <lane id=":10712215173_1_0" index="0" disallow="tram rail_urban rail rail_electric rail_fast ship" speed="27.78" length="7.66" shape="2128.46,702.04 2135.30,705.48"/>
    </edge>
    <edge id=":10712215178_0" function="internal">
        <lane id=":10712215178_0_0" index="0" allow="pedestrian delivery bicycle" speed="5.56" length="3.89" shape="2132.22,672.51 2131.33,673.24 2130.79,673.83 2130.42,674.54 2130.04,675.62"/>
    </edge>
    <edge id=":10712215178_1" function="internal">
        <lane id=":10712215178_1_0" index="0" allow="pedestrian delivery bicycle" speed="3.65" length="4.67" shape="2132.22,672.51 2130.78,672.63 2129.97,672.24 2129.79,671.37 2130.24,670.00"/>
    </edge>
    <edge id=":10712215178_2" function="internal">
        <lane id=":10712215178_2_0" index="0" allow="pedestrian delivery bicycle" speed="5.56" length="4.91" shape="2126.00,672.41 2127.35,671.86 2128.25,671.43 2129.09,670.88 2130.24,670.00"/>
    </edge>
    <edge id=":10712215178_3" function="internal">
        <lane id=":10712215178_3_0" index="0" allow="pedestrian delivery bicycle" speed="5.08" length="7.80" shape="2126.00,672.41 2128.45,671.73 2129.95,672.04 2130.48,673.34 2130.04,675.62"/>
    </edge>
    <edge id=":10712215179_0" function="internal">
        <lane id=":10712215179_0_0" index="0" allow="pedestrian delivery bicycle" speed="3.65" length="4.67" shape="2139.56,662.67 2141.00,662.56 2141.81,662.94 2141.99,663.82 2141.54,665.19"/>
    </edge>
    <edge id=":10712215180_0" function="internal">
        <lane id=":10712215180_0_0" index="0" allow="pedestrian delivery bicycle" speed="5.56" length="6.45" shape="2001.61,611.78 2003.26,612.69 2004.20,613.65 2005.14,614.61 2006.79,615.52"/>
    </edge>
    <edge id=":10712215180_1" function="internal">
        <lane id=":10712215180_1_0" index="0" allow="pedestrian delivery bicycle" speed="3.65" length="4.67" shape="2001.61,611.78 2002.44,612.96 2002.52,613.85 2001.86,614.45 2000.45,614.76"/>
    </edge>
    <edge id=":10712215180_2" function="internal">
        <lane id=":10712215180_2_0" index="0" allow="pedestrian delivery bicycle" speed="5.05" length="4.99" shape="2002.22,618.77 2002.52,617.44 2002.33,616.33 2001.64,615.43 2000.45,614.76"/>
    </edge>
    <edge id=":10712215180_3" function="internal">
        <lane id=":10712215180_3_0" index="0" allow="pedestrian delivery bicycle" speed="5.55" length="6.33" shape="2002.22,618.77 2003.13,616.92 2004.20,615.77 2005.42,615.30 2006.79,615.52"/>
    </edge>
    <edge id=":10712215185_0" function="internal">
        <lane id=":10712215185_0_0" index="0" allow="pedestrian delivery bicycle" speed="5.56" length="6.93" shape="1993.22,625.31 1994.61,625.53 1996.13,625.27 1997.78,624.53 1999.56,623.31"/>
    </edge>
    <edge id=":10712215185_1" function="internal">
        <lane id=":10712215185_1_0" index="0" allow="pedestrian delivery bicycle" speed="5.56" length="7.21" shape="1993.22,625.31 2000.02,627.70"/>
    </edge>
    <edge id=":10712215193_0" function="internal">
        <lane id=":10712215193_0_0" index="0" allow="pedestrian delivery bicycle" speed="5.56" length="9.28" shape="2108.94,671.65 2111.01,673.36 2112.73,674.18 2114.67,674.40 2117.40,674.32"/>
    </edge>
    <edge id=":10712215193_1" function="internal">
        <lane id=":10712215193_1_0" index="0" allow="pedestrian delivery bicycle" speed="5.56" length="9.01" shape="2108.94,671.65 2115.34,677.99"/>
    </edge>
    <edge id=":10712215196_0" function="internal">
        <lane id=":10712215196_0_0" index="0" allow="pedestrian delivery bicycle" speed="3.65" length="4.67" shape="1990.12,610.72 1989.29,609.54 1989.21,608.65 1989.87,608.05 1991.28,607.74"/>
    </edge>
    <edge id=":10712215197_0" function="internal">
        <lane id=":10712215197_0_0" index="0" allow="pedestrian delivery bicycle" speed="3.65" length="4.67" shape="2212.99,606.08 2212.87,607.51 2212.36,608.25 2211.47,608.29 2210.19,607.62"/>
    </edge>
    <edge id=":10712215198_0" function="internal">
        <lane id=":10712215198_0_0" index="0" allow="pedestrian delivery bicycle" speed="4.99" length="5.06" shape="2201.32,591.56 2200.48,590.45 2199.49,589.89 2198.36,589.89 2197.08,590.45"/>
    </edge>
    <edge id=":10712215198_1" function="internal">
        <lane id=":10712215198_1_0" index="0" allow="pedestrian delivery bicycle" speed="5.56" length="10.18" shape="2201.32,591.56 2200.29,588.91 2200.30,586.57 2201.33,584.52 2203.40,582.78"/>
    </edge>
    <edge id=":10712215198_2" function="internal">
        <lane id=":10712215198_2_0" index="0" allow="pedestrian delivery bicycle" speed="3.65" length="4.67" shape="2201.32,591.56 2201.44,590.12 2201.95,589.39 2202.84,589.35 2204.12,590.01"/>
    </edge>
    <edge id=":10712215198_3" function="internal">
        <lane id=":10712215198_3_0" index="0" allow="pedestrian delivery bicycle" speed="5.21" length="5.20" shape="2205.08,585.50 2204.05,586.38 2203.55,587.42 2203.58,588.63 2204.12,590.01"/>
    </edge>
    <edge id=":10712215198_4" function="internal">
        <lane id=":10712215198_4_0" index="0" allow="pedestrian delivery bicycle" speed="5.56" length="9.41" shape="2205.08,585.50 2197.08,590.45"/>
    </edge>
    <edge id=":10712215198_5" function="internal">
        <lane id=":10712215198_5_0" index="0" allow="pedestrian delivery bicycle" speed="3.65" length="4.67" shape="2205.08,585.50 2203.64,585.45 2202.88,584.98 2202.80,584.09 2203.40,582.78"/>
    </edge>
    <edge id=":10712215198_6" function="internal">
        <lane id=":10712215198_6_0" index="0" allow="pedestrian delivery bicycle" speed="5.56" length="9.41" shape="2195.39,587.73 2203.40,582.78"/>
    </edge>
    <edge id=":10712215198_7" function="internal">
        <lane id=":10712215198_7_0" index="0" allow="pedestrian delivery bicycle" speed="5.56" length="10.41" shape="2195.39,587.73 2198.03,586.58 2200.36,586.58 2202.39,587.72 2204.12,590.01"/>
    </edge>
    <edge id=":10712215198_8" function="internal">
        <lane id=":10712215198_8_0" index="0" allow="pedestrian delivery bicycle" speed="3.65" length="4.67" shape="2195.39,587.73 2196.83,587.78 2197.60,588.25 2197.68,589.14 2197.08,590.45"/>
    </edge>
    <edge id=":10712215199_0" function="internal">
        <lane id=":10712215199_0_0" index="0" allow="pedestrian delivery bicycle" speed="4.69" length="5.75" shape="2228.59,628.94 2228.23,627.27 2227.48,626.39 2226.32,626.30 2224.76,627.02"/>
    </edge>
    <edge id=":10712215199_1" function="internal">
        <lane id=":10712215199_1_0" index="0" allow="pedestrian delivery bicycle" speed="5.56" length="10.25" shape="2228.59,628.94 2227.81,618.73"/>
    </edge>
    <edge id=":10712215199_2" function="internal">
        <lane id=":10712215199_2_0" index="0" allow="pedestrian delivery bicycle" speed="3.65" length="4.67" shape="2228.59,628.94 2229.30,627.69 2230.07,627.23 2230.89,627.56 2231.78,628.70"/>
    </edge>
    <edge id=":10712215199_3" function="internal">
        <lane id=":10712215199_3_0" index="0" allow="pedestrian delivery bicycle" speed="5.56" length="10.25" shape="2231.00,618.48 2231.78,628.70"/>
    </edge>
    <edge id=":10712215199_4" function="internal">
        <lane id=":10712215199_4_0" index="0" allow="pedestrian delivery bicycle" speed="5.56" length="11.07" shape="2231.00,618.48 2230.74,620.66 2229.61,622.80 2227.62,624.92 2224.76,627.02"/>
    </edge>
    <edge id=":10712215199_5" function="internal">
        <lane id=":10712215199_5_0" index="0" allow="pedestrian delivery bicycle" speed="3.65" length="4.67" shape="2231.00,618.48 2230.30,619.74 2229.53,620.20 2228.70,619.86 2227.81,618.73"/>
    </edge>
    <edge id=":10712215199_6" function="internal">
        <lane id=":10712215199_6_0" index="0" allow="pedestrian delivery bicycle" speed="5.56" length="7.63" shape="2223.05,624.31 2225.20,622.79 2226.72,621.35 2227.59,620.00 2227.81,618.73"/>
    </edge>
    <edge id=":10712215199_7" function="internal">
        <lane id=":10712215199_7_0" index="0" allow="pedestrian delivery bicycle" speed="5.56" length="13.10" shape="2223.05,624.31 2226.60,622.69 2229.24,622.88 2230.97,624.88 2231.78,628.70"/>
    </edge>
    <edge id=":10712215199_8" function="internal">
        <lane id=":10712215199_8_0" index="0" allow="pedestrian delivery bicycle" speed="3.65" length="4.67" shape="2223.05,624.31 2224.49,624.35 2225.26,624.81 2225.35,625.70 2224.76,627.02"/>
    </edge>
    <edge id=":10712215200_0" function="internal">
        <lane id=":10712215200_0_0" index="0" allow="pedestrian delivery bicycle" speed="5.56" length="9.40" shape="2213.49,638.11 2208.04,630.45"/>
    </edge>
    <edge id=":10712215200_1" function="internal">
        <lane id=":10712215200_1_0" index="0" allow="pedestrian delivery bicycle" speed="5.56" length="10.43" shape="2213.49,638.11 2212.17,635.55 2212.03,633.22 2213.05,631.12 2215.24,629.25"/>
    </edge>
    <edge id=":10712215200_2" function="internal">
        <lane id=":10712215200_2_0" index="0" allow="pedestrian delivery bicycle" speed="3.65" length="4.67" shape="2213.49,638.11 2213.45,636.67 2213.87,635.88 2214.75,635.74 2216.10,636.26"/>
    </edge>
    <edge id=":10712215200_3" function="internal">
        <lane id=":10712215200_3_0" index="0" allow="pedestrian delivery bicycle" speed="4.98" length="5.06" shape="2216.95,631.96 2215.88,632.86 2215.39,633.88 2215.46,635.02 2216.10,636.26"/>
    </edge>
    <edge id=":10712215200_4" function="internal">
        <lane id=":10712215200_4_0" index="0" allow="pedestrian delivery bicycle" speed="5.56" length="10.18" shape="2216.95,631.96 2214.36,633.14 2212.02,633.29 2209.91,632.39 2208.04,630.45"/>
    </edge>
    <edge id=":10712215200_5" function="internal">
        <lane id=":10712215200_5_0" index="0" allow="pedestrian delivery bicycle" speed="3.65" length="4.67" shape="2216.95,631.96 2215.51,631.92 2214.74,631.46 2214.65,630.57 2215.24,629.25"/>
    </edge>
    <edge id=":10712215200_6" function="internal">
        <lane id=":10712215200_6_0" index="0" allow="pedestrian delivery bicycle" speed="5.22" length="5.22" shape="2210.65,628.59 2211.59,629.55 2212.67,629.98 2213.88,629.88 2215.24,629.25"/>
    </edge>
    <edge id=":10712215200_7" function="internal">
        <lane id=":10712215200_7_0" index="0" allow="pedestrian delivery bicycle" speed="5.56" length="9.41" shape="2210.65,628.59 2216.10,636.26"/>
    </edge>
    <edge id=":10712215200_8" function="internal">
        <lane id=":10712215200_8_0" index="0" allow="pedestrian delivery bicycle" speed="3.65" length="4.67" shape="2210.65,628.59 2210.69,630.03 2210.27,630.82 2209.39,630.96 2208.04,630.45"/>
    </edge>
    <edge id=":10712215202_0" function="internal">
        <lane id=":10712215202_0_0" index="0" allow="pedestrian delivery bicycle" speed="3.65" length="4.67" shape="2219.85,681.63 2218.41,681.58 2217.65,681.11 2217.57,680.22 2218.17,678.91"/>
    </edge>
    <edge id=":10712215210_0" function="internal">
        <lane id=":10712215210_0_0" index="0" allow="pedestrian delivery bicycle" speed="3.65" length="4.67" shape="2217.80,638.66 2217.85,640.11 2217.43,640.89 2216.54,641.03 2215.20,640.52"/>
    </edge>
    <edge id=":10712215216_0" function="internal">
        <lane id=":10712215216_0_0" index="0" allow="pedestrian delivery bicycle" speed="4.80" length="5.38" shape="2222.49,578.83 2221.87,577.42 2220.99,576.68 2219.84,576.63 2218.43,577.24"/>
    </edge>
    <edge id=":10712215216_1" function="internal">
        <lane id=":10712215216_1_0" index="0" disallow="tram rail_urban rail rail_electric rail_fast ship" speed="13.89" length="9.66" shape="2222.49,578.83 2219.90,569.52"/>
    </edge>
    <edge id=":10712215216_2" function="internal">
        <lane id=":10712215216_2_0" index="0" allow="pedestrian delivery bicycle" speed="6.19" length="6.33" shape="2216.75,574.52 2218.40,573.31 2219.47,572.07 2219.98,570.81 2219.90,569.52"/>
    </edge>
    <edge id=":10712215216_3" function="internal">
        <lane id=":10712215216_3_0" index="0" allow="pedestrian delivery bicycle" speed="3.65" length="4.67" shape="2216.75,574.52 2218.19,574.57 2218.95,575.04 2219.03,575.93 2218.43,577.24"/>
    </edge>
    <edge id=":10712215217_0" function="internal">
        <lane id=":10712215217_0_0" index="0" allow="pedestrian delivery bicycle" speed="9.72" length="10.13" shape="2227.02,608.35 2227.15,605.35 2227.69,603.26 2227.99,601.22 2227.40,598.38"/>
    </edge>
    <edge id=":10712215217_1" function="internal">
        <lane id=":10712215217_1_0" index="0" allow="pedestrian delivery bicycle" speed="3.65" length="4.67" shape="2227.02,608.35 2227.73,607.09 2228.49,606.63 2229.32,606.97 2230.21,608.11"/>
    </edge>
    <edge id=":10712215217_2" function="internal">
        <lane id=":10712215217_2_0" index="0" allow="pedestrian delivery bicycle" speed="4.73" length="6.88" shape="2234.07,606.47 2232.23,605.14 2230.97,604.97 2230.30,605.96 2230.21,608.11"/>
    </edge>
    <edge id=":10712215217_3" function="internal">
        <lane id=":10712215217_3_0" index="0" disallow="tram rail_urban rail rail_electric rail_fast ship" speed="13.89" length="10.69" shape="2234.07,606.47 2231.69,604.46 2229.96,602.94 2228.62,601.16 2227.40,598.38"/>
    </edge>
    <edge id=":10712215223_0" function="internal">
        <lane id=":10712215223_0_0" index="0" allow="pedestrian delivery bicycle" speed="3.65" length="4.67" shape="2136.10,537.53 2134.66,537.50 2133.90,537.03 2133.81,536.14 2134.40,534.83"/>
    </edge>
    <edge id=":10712215259_0" function="internal">
        <lane id=":10712215259_0_0" index="0" allow="pedestrian delivery bicycle" speed="4.77" length="5.30" shape="2094.25,435.14 2094.07,433.62 2093.45,432.67 2092.39,432.28 2090.89,432.45"/>
    </edge>
    <edge id=":10712215259_1" function="internal">
        <lane id=":10712215259_1_0" index="0" allow="pedestrian delivery bicycle" speed="5.56" length="10.14" shape="2094.25,435.14 2094.63,432.17 2095.64,429.90 2097.27,428.35 2099.53,427.51"/>
    </edge>
    <edge id=":10712215259_2" function="internal">
        <lane id=":10712215259_2_0" index="0" allow="pedestrian delivery bicycle" speed="3.69" length="4.83" shape="2094.25,435.14 2094.77,433.74 2095.48,433.15 2096.38,433.36 2097.47,434.38"/>
    </edge>
    <edge id=":10712215259_3" function="internal">
        <lane id=":10712215259_3_0" index="0" allow="pedestrian delivery bicycle" speed="5.42" length="5.01" shape="2100.13,430.65 2098.99,431.07 2098.17,431.83 2097.66,432.93 2097.47,434.38"/>
    </edge>
    <edge id=":10712215259_4" function="internal">
        <lane id=":10712215259_4_0" index="0" allow="pedestrian delivery bicycle" speed="5.56" length="9.42" shape="2100.13,430.65 2090.89,432.45"/>
    </edge>
    <edge id=":10712215259_5" function="internal">
        <lane id=":10712215259_5_0" index="0" allow="pedestrian delivery bicycle" speed="3.65" length="4.67" shape="2100.13,430.65 2098.80,430.09 2098.26,429.38 2098.50,428.52 2099.53,427.51"/>
    </edge>
    <edge id=":10712215259_6" function="internal">
        <lane id=":10712215259_6_0" index="0" allow="pedestrian delivery bicycle" speed="5.56" length="9.42" shape="2090.29,429.30 2099.53,427.51"/>
    </edge>
    <edge id=":10712215259_7" function="internal">
        <lane id=":10712215259_7_0" index="0" allow="pedestrian delivery bicycle" speed="5.56" length="10.82" shape="2090.29,429.30 2093.48,428.89 2095.74,429.61 2097.07,431.43 2097.47,434.38"/>
    </edge>
    <edge id=":10712215259_8" function="internal">
        <lane id=":10712215259_8_0" index="0" allow="pedestrian delivery bicycle" speed="3.65" length="4.68" shape="2090.29,429.30 2091.62,429.86 2092.16,430.57 2091.92,431.43 2090.89,432.45"/>
    </edge>
    <edge id=":10712215262_0" function="internal">
        <lane id=":10712215262_0_0" index="0" allow="pedestrian delivery bicycle" speed="5.56" length="5.72" shape="2119.31,427.96 2118.17,428.34 2117.26,429.18 2116.57,430.47 2116.10,432.23"/>
    </edge>
    <edge id=":10712215262_1" function="internal">
        <lane id=":10712215262_1_0" index="0" allow="pedestrian delivery bicycle" speed="5.56" length="9.57" shape="2119.31,427.96 2109.80,429.10"/>
    </edge>
    <edge id=":10712215262_2" function="internal">
        <lane id=":10712215262_2_0" index="0" allow="pedestrian delivery bicycle" speed="3.65" length="4.67" shape="2119.31,427.96 2118.02,427.31 2117.53,426.56 2117.83,425.72 2118.93,424.78"/>
    </edge>
    <edge id=":10712215262_3" function="internal">
        <lane id=":10712215262_3_0" index="0" allow="pedestrian delivery bicycle" speed="5.56" length="9.57" shape="2109.42,425.92 2118.93,424.78"/>
    </edge>
    <edge id=":10712215262_4" function="internal">
        <lane id=":10712215262_4_0" index="0" allow="pedestrian delivery bicycle" speed="5.56" length="11.37" shape="2109.42,425.92 2112.83,425.96 2115.08,427.02 2116.17,429.11 2116.10,432.23"/>
    </edge>
    <edge id=":10712215262_5" function="internal">
        <lane id=":10712215262_5_0" index="0" allow="pedestrian delivery bicycle" speed="3.65" length="4.67" shape="2109.42,425.92 2110.71,426.57 2111.20,427.32 2110.90,428.16 2109.80,429.10"/>
    </edge>
    <edge id=":10712215262_6" function="internal">
        <lane id=":10712215262_6_0" index="0" allow="pedestrian delivery bicycle" speed="4.75" length="5.30" shape="2112.88,432.07 2112.92,430.60 2112.42,429.62 2111.38,429.12 2109.80,429.10"/>
    </edge>
    <edge id=":10712215262_7" function="internal">
        <lane id=":10712215262_7_0" index="0" allow="pedestrian delivery bicycle" speed="5.56" length="10.19" shape="2112.88,432.07 2113.71,429.10 2114.99,426.89 2116.73,425.46 2118.93,424.78"/>
    </edge>
    <edge id=":10712215262_8" function="internal">
        <lane id=":10712215262_8_0" index="0" allow="pedestrian delivery bicycle" speed="3.66" length="4.71" shape="2112.88,432.07 2113.74,430.90 2114.57,430.54 2115.35,430.98 2116.10,432.23"/>
    </edge>
    <edge id=":10712215267_0" function="internal">
        <lane id=":10712215267_0_0" index="0" allow="pedestrian delivery bicycle" speed="5.56" length="10.57" shape="2133.68,519.85 2131.17,521.59 2129.33,522.85 2127.45,524.03 2124.80,525.56"/>
    </edge>
    <edge id=":10712215267_1" function="internal">
        <lane id=":10712215267_1_0" index="0" allow="pedestrian delivery bicycle" speed="5.56" length="12.06" shape="2133.68,519.85 2130.00,521.90 2127.29,522.31 2125.54,521.07 2124.77,518.20"/>
    </edge>
    <edge id=":10712215267_2" function="internal">
        <lane id=":10712215267_2_0" index="0" allow="pedestrian delivery bicycle" speed="3.65" length="4.67" shape="2133.68,519.85 2132.24,519.87 2131.46,519.44 2131.33,518.55 2131.87,517.22"/>
    </edge>
    <edge id=":10712215267_3" function="internal">
        <lane id=":10712215267_3_0" index="0" allow="pedestrian delivery bicycle" speed="4.44" length="5.86" shape="2128.17,516.37 2128.12,517.89 2128.72,518.53 2129.97,518.31 2131.87,517.22"/>
    </edge>
    <edge id=":10712215267_4" function="internal">
        <lane id=":10712215267_4_0" index="0" allow="pedestrian delivery bicycle" speed="5.56" length="9.94" shape="2128.17,516.37 2127.37,520.01 2126.54,522.75 2125.68,524.60 2124.80,525.56"/>
    </edge>
    <edge id=":10712215267_5" function="internal">
        <lane id=":10712215267_5_0" index="0" allow="pedestrian delivery bicycle" speed="4.03" length="5.64" shape="2128.17,516.37 2128.01,518.10 2127.39,518.98 2126.31,519.02 2124.77,518.20"/>
    </edge>
    <edge id=":10712215267_6" function="internal">
        <lane id=":10712215267_6_0" index="0" allow="pedestrian delivery bicycle" speed="5.56" length="5.25" shape="2123.11,522.81 2123.95,522.28 2124.51,521.33 2124.78,519.98 2124.77,518.20"/>
    </edge>
    <edge id=":10712215267_7" function="internal">
        <lane id=":10712215267_7_0" index="0" allow="pedestrian delivery bicycle" speed="5.56" length="10.47" shape="2123.11,522.81 2125.90,521.67 2127.72,520.49 2129.43,519.06 2131.87,517.22"/>
    </edge>
    <edge id=":10712215267_8" function="internal">
        <lane id=":10712215267_8_0" index="0" allow="pedestrian delivery bicycle" speed="3.75" length="4.71" shape="2123.11,522.81 2124.56,522.87 2125.33,523.34 2125.41,524.24 2124.80,525.56"/>
    </edge>
    <edge id=":10712215270_0" function="internal">
        <lane id=":10712215270_0_0" index="0" allow="pedestrian delivery bicycle" speed="5.13" length="5.13" shape="2137.99,494.11 2136.62,493.95 2135.51,494.27 2134.66,495.07 2134.07,496.37"/>
    </edge>
    <edge id=":10712215270_1" function="internal">
        <lane id=":10712215270_1_0" index="0" allow="pedestrian delivery bicycle" speed="5.56" length="9.45" shape="2137.99,494.11 2128.87,491.63"/>
    </edge>
    <edge id=":10712215270_2" function="internal">
        <lane id=":10712215270_2_0" index="0" allow="pedestrian delivery bicycle" speed="5.56" length="10.17" shape="2137.99,494.11 2135.44,493.01 2133.85,491.35 2133.23,489.14 2133.56,486.37"/>
    </edge>
    <edge id=":10712215270_3" function="internal">
        <lane id=":10712215270_3_0" index="0" allow="pedestrian delivery bicycle" speed="3.65" length="4.67" shape="2137.99,494.11 2137.04,493.03 2136.87,492.15 2137.46,491.48 2138.83,491.02"/>
    </edge>
    <edge id=":10712215270_4" function="internal">
        <lane id=":10712215270_4_0" index="0" allow="pedestrian delivery bicycle" speed="5.06" length="5.02" shape="2136.65,487.19 2136.49,488.56 2136.79,489.66 2137.57,490.48 2138.83,491.02"/>
    </edge>